CHEMBL3133894_smina_1
     RDKit          3D

 22 24  0  0  0  0  0  0  0  0999 V2000
  -12.3192   14.8325  -28.5803 C   0  0  0  0  0  0  0  0  0  0  0  0
  -12.5069   13.5263  -28.0970 C   0  0  0  0  0  0  0  0  0  0  0  0
  -13.4555   13.2685  -27.1063 C   0  0  0  0  0  0  0  0  0  0  0  0
  -14.2234   14.3098  -26.5781 C   0  0  0  0  0  0  0  0  0  0  0  0
  -15.1318   14.0473  -25.6050 N   0  0  0  0  0  0  0  0  0  0  0  0
  -15.8789   15.0390  -25.0632 C   0  0  0  0  0  0  0  0  0  0  0  0
  -15.7303   16.3159  -25.4944 N   0  0  0  0  0  0  0  0  0  0  0  0
  -14.8487   16.6538  -26.4778 C   0  0  0  0  0  0  0  0  0  0  0  0
  -14.0450   15.6325  -27.0433 C   0  0  0  0  0  0  0  0  0  0  0  0
  -13.0767   15.8824  -28.0370 C   0  0  0  0  0  0  0  0  0  0  0  0
  -10.8222   16.4444  -29.8419 C   0  0  0  0  0  0  0  0  0  0  0  0
  -10.9132   17.3393  -28.9590 O   0  0  0  0  0  0  0  0  0  0  0  0
  -11.3256   15.1229  -29.5794 N   0  0  0  0  0  0  0  0  0  0  0  0
  -10.7910   17.0265  -32.2433 C   0  0  0  0  0  0  0  0  0  0  0  0
  -10.1410   16.7741  -31.1082 C   0  0  0  0  0  0  0  0  0  0  0  0
  -14.7047   18.0353  -26.9083 N   0  0  0  0  0  0  0  0  0  0  0  0
  -13.8460   18.9181  -26.0816 C   0  0  0  0  0  0  0  0  0  0  0  0
  -13.3036   18.2124  -24.8040 C   0  0  0  0  0  0  0  0  0  0  0  0
  -13.2068   19.1567  -23.5953 C   0  0  0  0  0  0  0  0  0  0  0  0
  -12.6448   20.5217  -24.0084 C   0  0  0  0  0  0  0  0  0  0  0  0
  -13.5227   21.2338  -25.0614 C   0  0  0  0  0  0  0  0  0  0  0  0
  -14.4967   20.2944  -25.7972 C   0  0  0  0  0  0  0  0  0  0  0  0
 14 15  2  0
 15 11  1  0
 11 12  2  0
 11 13  1  0
 13  1  1  0
  1  2  2  0
  2  3  1  0
  3  4  2  0
  4  5  1  0
  5  6  2  0
  6  7  1  0
  7  8  2  0
  8 16  1  0
 16 17  1  0
 17 18  1  0
 18 19  1  0
 19 20  1  0
 20 21  1  0
 21 22  1  0
  8  9  1  0
  9 10  2  0
 10  1  1  0
  9  4  1  0
 22 17  1  0
M  CHG  1  16   1
M  END
>  <minimizedAffinity>  (1) 
-8.29156

$$$$
CHEMBL3133894_smina_2
     RDKit          3D

 22 24  0  0  0  0  0  0  0  0999 V2000
  -12.3474   15.7913  -28.1832 C   0  0  0  0  0  0  0  0  0  0  0  0
  -12.4884   14.4863  -27.6811 C   0  0  0  0  0  0  0  0  0  0  0  0
  -13.1418   14.2621  -26.4684 C   0  0  0  0  0  0  0  0  0  0  0  0
  -13.6555   15.3357  -25.7359 C   0  0  0  0  0  0  0  0  0  0  0  0
  -14.2756   15.1047  -24.5514 N   0  0  0  0  0  0  0  0  0  0  0  0
  -14.7693   16.1270  -23.8122 C   0  0  0  0  0  0  0  0  0  0  0  0
  -14.6534   17.4037  -24.2537 N   0  0  0  0  0  0  0  0  0  0  0  0
  -14.0564   17.7121  -25.4398 C   0  0  0  0  0  0  0  0  0  0  0  0
  -13.5172   16.6572  -26.2178 C   0  0  0  0  0  0  0  0  0  0  0  0
  -12.8464   16.8722  -27.4390 C   0  0  0  0  0  0  0  0  0  0  0  0
  -10.5538   16.9675  -29.5360 C   0  0  0  0  0  0  0  0  0  0  0  0
   -9.8877   17.2892  -28.5155 O   0  0  0  0  0  0  0  0  0  0  0  0
  -11.6509   16.0452  -29.4162 N   0  0  0  0  0  0  0  0  0  0  0  0
  -10.6452   17.0895  -32.0025 C   0  0  0  0  0  0  0  0  0  0  0  0
  -10.1414   17.5116  -30.8438 C   0  0  0  0  0  0  0  0  0  0  0  0
  -13.9372   19.0934  -25.8783 N   0  0  0  0  0  0  0  0  0  0  0  0
  -13.7254   20.1222  -24.8310 C   0  0  0  0  0  0  0  0  0  0  0  0
  -13.6273   21.5646  -25.4094 C   0  0  0  0  0  0  0  0  0  0  0  0
  -12.6241   22.4463  -24.6489 C   0  0  0  0  0  0  0  0  0  0  0  0
  -12.7485   22.2394  -23.1351 C   0  0  0  0  0  0  0  0  0  0  0  0
  -12.4728   20.7803  -22.7084 C   0  0  0  0  0  0  0  0  0  0  0  0
  -12.5703   19.7656  -23.8630 C   0  0  0  0  0  0  0  0  0  0  0  0
 14 15  2  0
 15 11  1  0
 11 12  2  0
 11 13  1  0
 13  1  1  0
  1  2  2  0
  2  3  1  0
  3  4  2  0
  4  5  1  0
  5  6  2  0
  6  7  1  0
  7  8  2  0
  8 16  1  0
 16 17  1  0
 17 18  1  0
 18 19  1  0
 19 20  1  0
 20 21  1  0
 21 22  1  0
  8  9  1  0
  9 10  2  0
 10  1  1  0
  9  4  1  0
 22 17  1  0
M  CHG  1  16   1
M  END
>  <minimizedAffinity>  (2) 
-8.20734

$$$$
CHEMBL3133894_smina_3
     RDKit          3D

 22 24  0  0  0  0  0  0  0  0999 V2000
  -14.0562   13.0187  -27.2918 C   0  0  0  0  0  0  0  0  0  0  0  0
  -13.1547   12.4367  -28.1994 C   0  0  0  0  0  0  0  0  0  0  0  0
  -12.2225   13.2260  -28.8744 C   0  0  0  0  0  0  0  0  0  0  0  0
  -12.1818   14.6065  -28.6606 C   0  0  0  0  0  0  0  0  0  0  0  0
  -11.2800   15.3639  -29.3344 N   0  0  0  0  0  0  0  0  0  0  0  0
  -11.2280   16.7062  -29.1592 C   0  0  0  0  0  0  0  0  0  0  0  0
  -12.0803   17.3133  -28.2971 N   0  0  0  0  0  0  0  0  0  0  0  0
  -13.0032   16.6169  -27.5748 C   0  0  0  0  0  0  0  0  0  0  0  0
  -13.0849   15.2140  -27.7588 C   0  0  0  0  0  0  0  0  0  0  0  0
  -14.0288   14.4079  -27.0905 C   0  0  0  0  0  0  0  0  0  0  0  0
  -15.7369   11.1213  -27.2160 C   0  0  0  0  0  0  0  0  0  0  0  0
  -15.2377   10.5377  -28.2154 O   0  0  0  0  0  0  0  0  0  0  0  0
  -15.0441   12.2261  -26.6094 N   0  0  0  0  0  0  0  0  0  0  0  0
  -17.7284    9.6587  -27.2554 C   0  0  0  0  0  0  0  0  0  0  0  0
  -17.0031   10.6054  -26.6619 C   0  0  0  0  0  0  0  0  0  0  0  0
  -13.9114   17.3005  -26.6678 N   0  0  0  0  0  0  0  0  0  0  0  0
  -13.3723   18.4564  -25.9107 C   0  0  0  0  0  0  0  0  0  0  0  0
  -13.0413   18.1095  -24.4293 C   0  0  0  0  0  0  0  0  0  0  0  0
  -13.3311   19.2704  -23.4647 C   0  0  0  0  0  0  0  0  0  0  0  0
  -12.8657   20.6056  -24.0568 C   0  0  0  0  0  0  0  0  0  0  0  0
  -13.5715   20.9454  -25.3884 C   0  0  0  0  0  0  0  0  0  0  0  0
  -14.2351   19.7328  -26.0677 C   0  0  0  0  0  0  0  0  0  0  0  0
 14 15  2  0
 15 11  1  0
 11 12  2  0
 11 13  1  0
 13  1  1  0
  1  2  2  0
  2  3  1  0
  3  4  2  0
  4  5  1  0
  5  6  2  0
  6  7  1  0
  7  8  2  0
  8 16  1  0
 16 17  1  0
 17 18  1  0
 18 19  1  0
 19 20  1  0
 20 21  1  0
 21 22  1  0
  8  9  1  0
  9 10  2  0
 10  1  1  0
  9  4  1  0
 22 17  1  0
M  CHG  1  16   1
M  END
>  <minimizedAffinity>  (3) 
-7.94963

$$$$
CHEMBL460721_smina_1
     RDKit          3D

 34 36  0  0  0  0  0  0  0  0999 V2000
  -18.1480   13.2283  -24.2379 C   0  0  0  0  0  0  0  0  0  0  0  0
  -18.7109   12.0008  -24.4043 N   0  0  0  0  0  0  0  0  0  0  0  0
  -18.2009   11.0867  -25.2692 C   0  0  0  0  0  0  0  0  0  0  0  0
  -17.0750   11.3988  -26.0343 C   0  0  0  0  0  0  0  0  0  0  0  0
  -16.5720   10.4873  -26.9045 N   0  0  0  0  0  0  0  0  0  0  0  0
  -15.4880   10.7749  -27.6649 C   0  0  0  0  0  0  0  0  0  0  0  0
  -14.8916   11.9895  -27.5695 N   0  0  0  0  0  0  0  0  0  0  0  0
  -15.3427   12.9496  -26.7147 C   0  0  0  0  0  0  0  0  0  0  0  0
  -16.4709   12.6680  -25.9039 C   0  0  0  0  0  0  0  0  0  0  0  0
  -17.0173   13.5854  -24.9879 C   0  0  0  0  0  0  0  0  0  0  0  0
  -14.6789   14.2325  -26.7040 N   0  0  0  0  0  0  0  0  0  0  0  0
  -13.5148   14.2121  -27.5596 C   0  0  0  0  0  0  0  0  0  0  0  0
  -13.0181   12.9956  -28.0667 C   0  0  0  0  0  0  0  0  0  0  0  0
  -11.8978   12.9823  -28.9026 C   0  0  0  0  0  0  0  0  0  0  0  0
  -11.2742   14.1798  -29.2606 C   0  0  0  0  0  0  0  0  0  0  0  0
  -11.7725   15.3968  -28.7867 C   0  0  0  0  0  0  0  0  0  0  0  0
  -10.9264   17.0344  -29.2853 Br  0  0  0  0  0  0  0  0  0  0  0  0
  -12.8896   15.4152  -27.9437 C   0  0  0  0  0  0  0  0  0  0  0  0
  -18.7822   14.2080  -23.2909 C   0  0  0  0  0  0  0  0  0  0  0  0
  -17.9113   15.4278  -23.1114 C   0  0  0  0  0  0  0  0  0  0  0  0
  -18.3759   16.4269  -22.4981 O   0  0  0  0  0  0  0  0  0  0  0  0
  -15.7992   16.6395  -23.6169 C   0  0  0  0  0  0  0  0  0  0  0  0
  -16.5347   15.5201  -23.6450 C   0  0  0  0  0  0  0  0  0  0  0  0
  -14.4381   16.6978  -24.1970 C   0  0  0  0  0  0  0  0  0  0  0  0
  -13.7147   15.6659  -24.2158 O   0  0  0  0  0  0  0  0  0  0  0  0
  -13.9149   17.9077  -24.7572 N   0  0  0  0  0  0  0  0  0  0  0  0
  -14.3247   18.4783  -26.0355 C   0  0  0  0  0  0  0  0  0  0  0  0
  -13.9666   19.9670  -26.0993 C   0  0  0  0  0  0  0  0  0  0  0  0
  -14.8997   20.8515  -25.2527 C   0  0  0  0  0  0  0  0  0  0  0  0
  -14.2920   21.2326  -23.9578 N   0  0  0  0  0  0  0  0  0  0  0  0
  -15.0186   20.7713  -22.7495 C   0  0  0  0  0  0  0  0  0  0  0  0
  -14.1947   19.8720  -21.8124 C   0  0  0  0  0  0  0  0  0  0  0  0
  -13.7594   22.6151  -23.8759 C   0  0  0  0  0  0  0  0  0  0  0  0
  -12.4493   22.8342  -24.6368 C   0  0  0  0  0  0  0  0  0  0  0  0
 22 24  1  0
 24 25  2  0
 24 26  1  0
 26 27  1  0
 27 28  1  0
 28 29  1  0
 29 30  1  0
 30 31  1  0
 31 32  1  0
 30 33  1  0
 33 34  1  0
 22 23  2  0
 23 20  1  0
 20 21  2  0
 20 19  1  0
 19  1  1  0
  1  2  2  0
  2  3  1  0
  3  4  2  0
  4  5  1  0
  5  6  2  0
  6  7  1  0
  7  8  2  0
  8 11  1  0
 11 12  1  0
 12 13  2  0
 13 14  1  0
 14 15  2  0
 15 16  1  0
 16 17  1  0
 16 18  2  0
  8  9  1  0
  9 10  2  0
 10  1  1  0
  9  4  1  0
 18 12  1  0
M  CHG  2  11   1  26  -1
M  END
>  <minimizedAffinity>  (4) 
-7.26036

$$$$
CHEMBL460721_smina_2
     RDKit          3D

 34 36  0  0  0  0  0  0  0  0999 V2000
  -15.5560   16.8409  -24.7959 C   0  0  0  0  0  0  0  0  0  0  0  0
  -15.6404   17.3272  -26.0639 N   0  0  0  0  0  0  0  0  0  0  0  0
  -15.0668   18.5045  -26.4226 C   0  0  0  0  0  0  0  0  0  0  0  0
  -14.3782   19.2652  -25.4752 C   0  0  0  0  0  0  0  0  0  0  0  0
  -13.8133   20.4457  -25.8334 N   0  0  0  0  0  0  0  0  0  0  0  0
  -13.1516   21.2046  -24.9266 C   0  0  0  0  0  0  0  0  0  0  0  0
  -13.0508   20.7934  -23.6379 N   0  0  0  0  0  0  0  0  0  0  0  0
  -13.5918   19.6181  -23.2113 C   0  0  0  0  0  0  0  0  0  0  0  0
  -14.2820   18.8044  -24.1444 C   0  0  0  0  0  0  0  0  0  0  0  0
  -14.8761   17.5734  -23.8111 C   0  0  0  0  0  0  0  0  0  0  0  0
  -13.4783   19.2725  -21.8133 N   0  0  0  0  0  0  0  0  0  0  0  0
  -14.3734   20.0773  -21.0141 C   0  0  0  0  0  0  0  0  0  0  0  0
  -14.5690   21.4406  -21.3088 C   0  0  0  0  0  0  0  0  0  0  0  0
  -15.4441   22.2124  -20.5390 C   0  0  0  0  0  0  0  0  0  0  0  0
  -16.1500   21.6312  -19.4831 C   0  0  0  0  0  0  0  0  0  0  0  0
  -15.9862   20.2729  -19.1961 C   0  0  0  0  0  0  0  0  0  0  0  0
  -16.9598   19.4762  -17.7596 Br  0  0  0  0  0  0  0  0  0  0  0  0
  -15.1060   19.4973  -19.9592 C   0  0  0  0  0  0  0  0  0  0  0  0
  -16.2436   15.5489  -24.4545 C   0  0  0  0  0  0  0  0  0  0  0  0
  -15.8506   14.4559  -25.4186 C   0  0  0  0  0  0  0  0  0  0  0  0
  -16.7500   13.7245  -25.9147 O   0  0  0  0  0  0  0  0  0  0  0  0
  -14.0588   13.8635  -27.0382 C   0  0  0  0  0  0  0  0  0  0  0  0
  -14.4467   14.1814  -25.7960 C   0  0  0  0  0  0  0  0  0  0  0  0
  -12.6469   13.5592  -27.3646 C   0  0  0  0  0  0  0  0  0  0  0  0
  -11.8667   13.1427  -26.4667 O   0  0  0  0  0  0  0  0  0  0  0  0
  -12.1360   13.7149  -28.6936 N   0  0  0  0  0  0  0  0  0  0  0  0
  -12.0021   14.9897  -29.3897 C   0  0  0  0  0  0  0  0  0  0  0  0
  -11.8849   16.1411  -28.3851 C   0  0  0  0  0  0  0  0  0  0  0  0
  -10.7911   17.1592  -28.7553 C   0  0  0  0  0  0  0  0  0  0  0  0
  -10.1370   16.8387  -30.0440 N   0  0  0  0  0  0  0  0  0  0  0  0
   -8.7071   16.4532  -29.9572 C   0  0  0  0  0  0  0  0  0  0  0  0
   -8.4388   14.9487  -30.1310 C   0  0  0  0  0  0  0  0  0  0  0  0
  -10.4747   17.7316  -31.1799 C   0  0  0  0  0  0  0  0  0  0  0  0
  -10.9949   17.0048  -32.4226 C   0  0  0  0  0  0  0  0  0  0  0  0
 22 24  1  0
 24 25  2  0
 24 26  1  0
 26 27  1  0
 27 28  1  0
 28 29  1  0
 29 30  1  0
 30 31  1  0
 31 32  1  0
 30 33  1  0
 33 34  1  0
 22 23  2  0
 23 20  1  0
 20 21  2  0
 20 19  1  0
 19  1  1  0
  1  2  2  0
  2  3  1  0
  3  4  2  0
  4  5  1  0
  5  6  2  0
  6  7  1  0
  7  8  2  0
  8 11  1  0
 11 12  1  0
 12 13  2  0
 13 14  1  0
 14 15  2  0
 15 16  1  0
 16 17  1  0
 16 18  2  0
  8  9  1  0
  9 10  2  0
 10  1  1  0
  9  4  1  0
 18 12  1  0
M  CHG  2  11   1  26  -1
M  END
>  <minimizedAffinity>  (5) 
-7.13600

$$$$
CHEMBL460721_smina_3
     RDKit          3D

 34 36  0  0  0  0  0  0  0  0999 V2000
  -14.6347   13.2066  -26.9977 C   0  0  0  0  0  0  0  0  0  0  0  0
  -13.5867   12.6114  -27.6292 N   0  0  0  0  0  0  0  0  0  0  0  0
  -12.5661   13.3304  -28.1631 C   0  0  0  0  0  0  0  0  0  0  0  0
  -12.5781   14.7249  -28.0889 C   0  0  0  0  0  0  0  0  0  0  0  0
  -11.5617   15.4421  -28.6308 N   0  0  0  0  0  0  0  0  0  0  0  0
  -11.5606   16.7961  -28.5804 C   0  0  0  0  0  0  0  0  0  0  0  0
  -12.5870   17.4567  -27.9887 N   0  0  0  0  0  0  0  0  0  0  0  0
  -13.6373   16.7992  -27.4226 C   0  0  0  0  0  0  0  0  0  0  0  0
  -13.6557   15.3822  -27.4570 C   0  0  0  0  0  0  0  0  0  0  0  0
  -14.6892   14.6054  -26.9023 C   0  0  0  0  0  0  0  0  0  0  0  0
  -14.7121   17.5767  -26.8508 N   0  0  0  0  0  0  0  0  0  0  0  0
  -14.2679   18.2633  -25.6597 C   0  0  0  0  0  0  0  0  0  0  0  0
  -14.1436   17.5736  -24.4380 C   0  0  0  0  0  0  0  0  0  0  0  0
  -13.7034   18.2401  -23.2909 C   0  0  0  0  0  0  0  0  0  0  0  0
  -13.3612   19.5929  -23.3521 C   0  0  0  0  0  0  0  0  0  0  0  0
  -13.4538   20.2835  -24.5639 C   0  0  0  0  0  0  0  0  0  0  0  0
  -12.9752   22.1301  -24.6498 Br  0  0  0  0  0  0  0  0  0  0  0  0
  -13.9008   19.6228  -25.7139 C   0  0  0  0  0  0  0  0  0  0  0  0
  -15.7509   12.3560  -26.4596 C   0  0  0  0  0  0  0  0  0  0  0  0
  -15.8755   11.0702  -27.2405 C   0  0  0  0  0  0  0  0  0  0  0  0
  -15.1370   10.8909  -28.2467 O   0  0  0  0  0  0  0  0  0  0  0  0
  -17.7264    9.4943  -27.7652 C   0  0  0  0  0  0  0  0  0  0  0  0
  -16.8472   10.0094  -26.8955 C   0  0  0  0  0  0  0  0  0  0  0  0
  -18.7078    8.4594  -27.3673 C   0  0  0  0  0  0  0  0  0  0  0  0
  -19.1406    7.6383  -28.2199 O   0  0  0  0  0  0  0  0  0  0  0  0
  -19.1786    8.3540  -26.0187 N   0  0  0  0  0  0  0  0  0  0  0  0
  -18.8315    7.2775  -25.0977 C   0  0  0  0  0  0  0  0  0  0  0  0
  -18.9229    7.7611  -23.6464 C   0  0  0  0  0  0  0  0  0  0  0  0
  -17.9433    8.9047  -23.3260 C   0  0  0  0  0  0  0  0  0  0  0  0
  -17.2782    8.7253  -22.0157 N   0  0  0  0  0  0  0  0  0  0  0  0
  -16.8502    7.3405  -21.6997 C   0  0  0  0  0  0  0  0  0  0  0  0
  -16.1715    7.1781  -20.3290 C   0  0  0  0  0  0  0  0  0  0  0  0
  -17.8779    9.4676  -20.8795 C   0  0  0  0  0  0  0  0  0  0  0  0
  -17.0211   10.6234  -20.3566 C   0  0  0  0  0  0  0  0  0  0  0  0
 22 24  1  0
 24 25  2  0
 24 26  1  0
 26 27  1  0
 27 28  1  0
 28 29  1  0
 29 30  1  0
 30 31  1  0
 31 32  1  0
 30 33  1  0
 33 34  1  0
 22 23  2  0
 23 20  1  0
 20 21  2  0
 20 19  1  0
 19  1  1  0
  1  2  2  0
  2  3  1  0
  3  4  2  0
  4  5  1  0
  5  6  2  0
  6  7  1  0
  7  8  2  0
  8 11  1  0
 11 12  1  0
 12 13  2  0
 13 14  1  0
 14 15  2  0
 15 16  1  0
 16 17  1  0
 16 18  2  0
  8  9  1  0
  9 10  2  0
 10  1  1  0
  9  4  1  0
 18 12  1  0
M  CHG  2  11   1  26  -1
M  END
>  <minimizedAffinity>  (6) 
-7.06386

$$$$
CHEMBL4858409_smina_1
     RDKit          3D

 35 38  0  0  0  0  0  0  0  0999 V2000
  -14.2368   17.9844  -23.2008 C   0  0  0  0  0  0  0  0  0  0  0  0
  -14.8210   16.9456  -23.8614 N   0  0  0  0  0  0  0  0  0  0  0  0
  -16.0564   16.4909  -23.5265 C   0  0  0  0  0  0  0  0  0  0  0  0
  -16.7402   17.0852  -22.5109 N   0  0  0  0  0  0  0  0  0  0  0  0
  -16.2098   18.1310  -21.8260 C   0  0  0  0  0  0  0  0  0  0  0  0
  -14.9425   18.6159  -22.1559 C   0  0  0  0  0  0  0  0  0  0  0  0
  -14.3012   19.9907  -21.2572 Cl  0  0  0  0  0  0  0  0  0  0  0  0
  -12.9123   18.4045  -23.5952 N   0  0  0  0  0  0  0  0  0  0  0  0
  -13.5949   20.3017  -25.0990 C   0  0  0  0  0  0  0  0  0  0  0  0
  -13.5144   21.6693  -25.4099 C   0  0  0  0  0  0  0  0  0  0  0  0
  -12.8072   22.5521  -24.5767 C   0  0  0  0  0  0  0  0  0  0  0  0
  -12.1843   22.0783  -23.4293 C   0  0  0  0  0  0  0  0  0  0  0  0
  -12.2436   20.7156  -23.1215 C   0  0  0  0  0  0  0  0  0  0  0  0
  -12.9279   19.8081  -23.9440 C   0  0  0  0  0  0  0  0  0  0  0  0
  -15.6401   19.7180  -26.1370 O   0  0  0  0  0  0  0  0  0  0  0  0
  -14.4279   19.4488  -25.9669 C   0  0  0  0  0  0  0  0  0  0  0  0
  -13.8636   18.3163  -26.6314 N   0  0  0  0  0  0  0  0  0  0  0  0
  -14.5718   17.6313  -27.5609 O   0  0  0  0  0  0  0  0  0  0  0  0
  -16.6490   15.4115  -24.2666 N   0  0  0  0  0  0  0  0  0  0  0  0
  -15.6597   14.8084  -25.1253 C   0  0  0  0  0  0  0  0  0  0  0  0
  -14.3211   15.2255  -25.0748 C   0  0  0  0  0  0  0  0  0  0  0  0
  -13.3720   14.6789  -25.9439 C   0  0  0  0  0  0  0  0  0  0  0  0
  -13.7492   13.7058  -26.8821 C   0  0  0  0  0  0  0  0  0  0  0  0
  -15.0831   13.2887  -26.9300 C   0  0  0  0  0  0  0  0  0  0  0  0
  -16.0317   13.8350  -26.0619 C   0  0  0  0  0  0  0  0  0  0  0  0
  -12.8374   13.1236  -27.7774 O   0  0  0  0  0  0  0  0  0  0  0  0
  -12.5782   13.5778  -29.1044 C   0  0  0  0  0  0  0  0  0  0  0  0
  -11.1528   14.0049  -29.2573 C   0  0  0  0  0  0  0  0  0  0  0  0
  -10.2293   13.1979  -28.9854 O   0  0  0  0  0  0  0  0  0  0  0  0
  -10.8316   15.3196  -29.7228 N   0  0  0  0  0  0  0  0  0  0  0  0
   -9.8609   15.4988  -30.8029 C   0  0  0  0  0  0  0  0  0  0  0  0
   -8.6802   16.3262  -30.2735 C   0  0  0  0  0  0  0  0  0  0  0  0
   -9.1292   17.5318  -29.6657 O   0  0  0  0  0  0  0  0  0  0  0  0
   -9.9309   17.2464  -28.5331 C   0  0  0  0  0  0  0  0  0  0  0  0
  -11.2107   16.5119  -28.9445 C   0  0  0  0  0  0  0  0  0  0  0  0
 15 16  2  0
 16 17  1  0
 17 18  1  0
 16  9  1  0
  9 10  2  0
 10 11  1  0
 11 12  2  0
 12 13  1  0
 13 14  2  0
 14  8  1  0
  8  1  1  0
  1  2  2  0
  2  3  1  0
  3 19  1  0
 19 20  1  0
 20 21  2  0
 21 22  1  0
 22 23  2  0
 23 26  1  0
 26 27  1  0
 27 28  1  0
 28 29  2  0
 28 30  1  0
 30 31  1  0
 31 32  1  0
 32 33  1  0
 33 34  1  0
 34 35  1  0
 23 24  1  0
 24 25  2  0
  3  4  2  0
  4  5  1  0
  5  6  2  0
  6  7  1  0
 14  9  1  0
  6  1  1  0
 25 20  1  0
 35 30  1  0
M  CHG  2   8   1  19   1
M  END
>  <minimizedAffinity>  (7) 
-9.02475

$$$$
CHEMBL4858409_smina_2
     RDKit          3D

 35 38  0  0  0  0  0  0  0  0999 V2000
  -16.0145   16.6883  -23.4620 C   0  0  0  0  0  0  0  0  0  0  0  0
  -16.1850   15.5412  -24.1773 N   0  0  0  0  0  0  0  0  0  0  0  0
  -17.3580   14.8563  -24.1593 C   0  0  0  0  0  0  0  0  0  0  0  0
  -18.3986   15.3226  -23.4164 N   0  0  0  0  0  0  0  0  0  0  0  0
  -18.2868   16.4664  -22.6929 C   0  0  0  0  0  0  0  0  0  0  0  0
  -17.0909   17.1872  -22.6996 C   0  0  0  0  0  0  0  0  0  0  0  0
  -16.9961   18.6797  -21.7655 Cl  0  0  0  0  0  0  0  0  0  0  0  0
  -14.7344   17.3558  -23.5100 N   0  0  0  0  0  0  0  0  0  0  0  0
  -14.1015   19.5015  -24.6599 C   0  0  0  0  0  0  0  0  0  0  0  0
  -14.1251   20.2853  -25.8255 C   0  0  0  0  0  0  0  0  0  0  0  0
  -14.6726   19.7802  -27.0166 C   0  0  0  0  0  0  0  0  0  0  0  0
  -15.1916   18.4923  -27.0531 C   0  0  0  0  0  0  0  0  0  0  0  0
  -15.1890   17.7115  -25.8932 C   0  0  0  0  0  0  0  0  0  0  0  0
  -14.6646   18.1958  -24.6854 C   0  0  0  0  0  0  0  0  0  0  0  0
  -13.5798   19.5163  -22.3516 O   0  0  0  0  0  0  0  0  0  0  0  0
  -13.4313   20.0600  -23.4710 C   0  0  0  0  0  0  0  0  0  0  0  0
  -12.5983   21.2160  -23.5815 N   0  0  0  0  0  0  0  0  0  0  0  0
  -11.8449   21.6327  -22.5359 O   0  0  0  0  0  0  0  0  0  0  0  0
  -17.5066   13.6662  -24.9502 N   0  0  0  0  0  0  0  0  0  0  0  0
  -16.3329   13.4732  -25.7656 C   0  0  0  0  0  0  0  0  0  0  0  0
  -15.5134   14.5601  -26.1057 C   0  0  0  0  0  0  0  0  0  0  0  0
  -14.4055   14.3826  -26.9399 C   0  0  0  0  0  0  0  0  0  0  0  0
  -14.1012   13.1115  -27.4510 C   0  0  0  0  0  0  0  0  0  0  0  0
  -14.9168   12.0283  -27.1094 C   0  0  0  0  0  0  0  0  0  0  0  0
  -16.0242   12.2055  -26.2761 C   0  0  0  0  0  0  0  0  0  0  0  0
  -13.0010   12.8771  -28.2917 O   0  0  0  0  0  0  0  0  0  0  0  0
  -12.6302   13.6806  -29.4103 C   0  0  0  0  0  0  0  0  0  0  0  0
  -11.1677   13.9936  -29.3856 C   0  0  0  0  0  0  0  0  0  0  0  0
  -10.3578   13.1454  -28.9355 O   0  0  0  0  0  0  0  0  0  0  0  0
  -10.6814   15.2448  -29.8820 N   0  0  0  0  0  0  0  0  0  0  0  0
   -9.5609   15.2756  -30.8224 C   0  0  0  0  0  0  0  0  0  0  0  0
   -8.4013   16.0540  -30.1835 C   0  0  0  0  0  0  0  0  0  0  0  0
   -8.8311   17.3295  -29.7221 O   0  0  0  0  0  0  0  0  0  0  0  0
   -9.8005   17.1849  -28.6992 C   0  0  0  0  0  0  0  0  0  0  0  0
  -11.0667   16.5145  -29.2415 C   0  0  0  0  0  0  0  0  0  0  0  0
 15 16  2  0
 16 17  1  0
 17 18  1  0
 16  9  1  0
  9 10  2  0
 10 11  1  0
 11 12  2  0
 12 13  1  0
 13 14  2  0
 14  8  1  0
  8  1  1  0
  1  2  2  0
  2  3  1  0
  3 19  1  0
 19 20  1  0
 20 21  2  0
 21 22  1  0
 22 23  2  0
 23 26  1  0
 26 27  1  0
 27 28  1  0
 28 29  2  0
 28 30  1  0
 30 31  1  0
 31 32  1  0
 32 33  1  0
 33 34  1  0
 34 35  1  0
 23 24  1  0
 24 25  2  0
  3  4  2  0
  4  5  1  0
  5  6  2  0
  6  7  1  0
 14  9  1  0
  6  1  1  0
 25 20  1  0
 35 30  1  0
M  CHG  2   8   1  19   1
M  END
>  <minimizedAffinity>  (8) 
-8.78499

$$$$
CHEMBL4858409_smina_3
     RDKit          3D

 35 38  0  0  0  0  0  0  0  0999 V2000
  -13.5330   17.6144  -25.5551 C   0  0  0  0  0  0  0  0  0  0  0  0
  -12.9210   18.3245  -24.5662 N   0  0  0  0  0  0  0  0  0  0  0  0
  -13.1731   19.6456  -24.3751 C   0  0  0  0  0  0  0  0  0  0  0  0
  -14.0631   20.2848  -25.1822 N   0  0  0  0  0  0  0  0  0  0  0  0
  -14.7094   19.6229  -26.1765 C   0  0  0  0  0  0  0  0  0  0  0  0
  -14.4670   18.2641  -26.3882 C   0  0  0  0  0  0  0  0  0  0  0  0
  -15.3451   17.4374  -27.6746 Cl  0  0  0  0  0  0  0  0  0  0  0  0
  -13.2039   16.2172  -25.7157 N   0  0  0  0  0  0  0  0  0  0  0  0
  -12.8086   14.8308  -27.7770 C   0  0  0  0  0  0  0  0  0  0  0  0
  -12.1254   14.6647  -28.9932 C   0  0  0  0  0  0  0  0  0  0  0  0
  -11.2510   15.6582  -29.4642 C   0  0  0  0  0  0  0  0  0  0  0  0
  -11.0592   16.8219  -28.7305 C   0  0  0  0  0  0  0  0  0  0  0  0
  -11.7209   16.9879  -27.5100 C   0  0  0  0  0  0  0  0  0  0  0  0
  -12.5865   16.0054  -27.0065 C   0  0  0  0  0  0  0  0  0  0  0  0
  -14.8138   14.1016  -26.7531 O   0  0  0  0  0  0  0  0  0  0  0  0
  -13.7785   13.7905  -27.3873 C   0  0  0  0  0  0  0  0  0  0  0  0
  -13.5573   12.4225  -27.7365 N   0  0  0  0  0  0  0  0  0  0  0  0
  -14.5188   11.4896  -27.5364 O   0  0  0  0  0  0  0  0  0  0  0  0
  -12.5284   20.3517  -23.3029 N   0  0  0  0  0  0  0  0  0  0  0  0
  -13.4336   20.4755  -22.1872 C   0  0  0  0  0  0  0  0  0  0  0  0
  -13.9406   19.3335  -21.5490 C   0  0  0  0  0  0  0  0  0  0  0  0
  -14.8595   19.4521  -20.5018 C   0  0  0  0  0  0  0  0  0  0  0  0
  -15.2892   20.7189  -20.0776 C   0  0  0  0  0  0  0  0  0  0  0  0
  -14.7813   21.8567  -20.7123 C   0  0  0  0  0  0  0  0  0  0  0  0
  -13.8634   21.7385  -21.7590 C   0  0  0  0  0  0  0  0  0  0  0  0
  -16.2089   20.8952  -19.0313 O   0  0  0  0  0  0  0  0  0  0  0  0
  -17.5746   20.4845  -19.0539 C   0  0  0  0  0  0  0  0  0  0  0  0
  -17.8187   19.3764  -18.0794 C   0  0  0  0  0  0  0  0  0  0  0  0
  -16.8490   18.8563  -17.4735 O   0  0  0  0  0  0  0  0  0  0  0  0
  -19.1476   18.9121  -17.8210 N   0  0  0  0  0  0  0  0  0  0  0  0
  -19.6172   18.7604  -16.4435 C   0  0  0  0  0  0  0  0  0  0  0  0
  -19.9739   17.2860  -16.2030 C   0  0  0  0  0  0  0  0  0  0  0  0
  -20.8705   16.8054  -17.1977 O   0  0  0  0  0  0  0  0  0  0  0  0
  -20.2597   16.8447  -18.4753 C   0  0  0  0  0  0  0  0  0  0  0  0
  -19.9519   18.2880  -18.8862 C   0  0  0  0  0  0  0  0  0  0  0  0
 15 16  2  0
 16 17  1  0
 17 18  1  0
 16  9  1  0
  9 10  2  0
 10 11  1  0
 11 12  2  0
 12 13  1  0
 13 14  2  0
 14  8  1  0
  8  1  1  0
  1  2  2  0
  2  3  1  0
  3 19  1  0
 19 20  1  0
 20 21  2  0
 21 22  1  0
 22 23  2  0
 23 26  1  0
 26 27  1  0
 27 28  1  0
 28 29  2  0
 28 30  1  0
 30 31  1  0
 31 32  1  0
 32 33  1  0
 33 34  1  0
 34 35  1  0
 23 24  1  0
 24 25  2  0
  3  4  2  0
  4  5  1  0
  5  6  2  0
  6  7  1  0
 14  9  1  0
  6  1  1  0
 25 20  1  0
 35 30  1  0
M  CHG  2   8   1  19   1
M  END
>  <minimizedAffinity>  (9) 
-8.55142

$$$$
