CHEMBL3133894_gnina_1
     RDKit          3D

 22 24  0  0  0  0  0  0  0  0999 V2000
  -12.4486   15.0385  -28.3101 C   0  0  0  0  0  0  0  0  0  0  0  0
  -12.7957   16.3321  -27.8843 C   0  0  0  0  0  0  0  0  0  0  0  0
  -13.8695   16.5257  -27.0143 C   0  0  0  0  0  0  0  0  0  0  0  0
  -14.6170   15.4342  -26.5639 C   0  0  0  0  0  0  0  0  0  0  0  0
  -15.6675   15.6382  -25.7297 N   0  0  0  0  0  0  0  0  0  0  0  0
  -16.4196   14.6010  -25.2897 C   0  0  0  0  0  0  0  0  0  0  0  0
  -16.1257   13.3351  -25.6765 N   0  0  0  0  0  0  0  0  0  0  0  0
  -15.0776   13.0510  -26.5007 C   0  0  0  0  0  0  0  0  0  0  0  0
  -14.2910   14.1253  -26.9863 C   0  0  0  0  0  0  0  0  0  0  0  0
  -13.2105   13.9431  -27.8733 C   0  0  0  0  0  0  0  0  0  0  0  0
  -10.4064   15.8342  -29.5856 C   0  0  0  0  0  0  0  0  0  0  0  0
  -10.2181   16.8184  -28.8211 O   0  0  0  0  0  0  0  0  0  0  0  0
  -11.3641   14.8217  -29.2302 N   0  0  0  0  0  0  0  0  0  0  0  0
   -8.3343   15.2650  -30.8058 C   0  0  0  0  0  0  0  0  0  0  0  0
   -9.5842   15.7257  -30.8056 C   0  0  0  0  0  0  0  0  0  0  0  0
  -14.7973   11.6832  -26.9069 N   0  0  0  0  0  0  0  0  0  0  0  0
  -15.8752   10.9510  -27.6156 C   0  0  0  0  0  0  0  0  0  0  0  0
  -16.9999   10.4542  -26.6603 C   0  0  0  0  0  0  0  0  0  0  0  0
  -17.5791    9.0928  -27.0764 C   0  0  0  0  0  0  0  0  0  0  0  0
  -17.7829    9.0234  -28.5942 C   0  0  0  0  0  0  0  0  0  0  0  0
  -16.4663    9.2073  -29.3813 C   0  0  0  0  0  0  0  0  0  0  0  0
  -15.3333    9.8475  -28.5574 C   0  0  0  0  0  0  0  0  0  0  0  0
 14 15  2  0
 15 11  1  0
 11 12  2  0
 11 13  1  0
 13  1  1  0
  1  2  2  0
  2  3  1  0
  3  4  2  0
  4  5  1  0
  5  6  2  0
  6  7  1  0
  7  8  2  0
  8 16  1  0
 16 17  1  0
 17 18  1  0
 18 19  1  0
 19 20  1  0
 20 21  1  0
 21 22  1  0
  8  9  1  0
  9 10  2  0
 10  1  1  0
  9  4  1  0
 22 17  1  0
M  CHG  1  16   1
M  END
>  <minimizedAffinity>  (1) 
-7.57980

>  <CNNscore>  (1) 
0.5633069277

>  <CNNaffinity>  (1) 
6.2110338211

>  <CNN_VS>  (1) 
3.4987182617

$$$$
CHEMBL3133894_gnina_2
     RDKit          3D

 22 24  0  0  0  0  0  0  0  0999 V2000
  -15.3307   14.2687  -26.3390 C   0  0  0  0  0  0  0  0  0  0  0  0
  -15.1777   12.8929  -26.5822 C   0  0  0  0  0  0  0  0  0  0  0  0
  -14.1143   12.4257  -27.3558 C   0  0  0  0  0  0  0  0  0  0  0  0
  -13.1944   13.3233  -27.9044 C   0  0  0  0  0  0  0  0  0  0  0  0
  -12.1735   12.8565  -28.6666 N   0  0  0  0  0  0  0  0  0  0  0  0
  -11.2760   13.7042  -29.2243 C   0  0  0  0  0  0  0  0  0  0  0  0
  -11.3849   15.0403  -29.0211 N   0  0  0  0  0  0  0  0  0  0  0  0
  -12.3748   15.5817  -28.2560 C   0  0  0  0  0  0  0  0  0  0  0  0
  -13.3340   14.7118  -27.6799 C   0  0  0  0  0  0  0  0  0  0  0  0
  -14.4180   15.1728  -26.9053 C   0  0  0  0  0  0  0  0  0  0  0  0
  -16.4638   14.7916  -24.1315 C   0  0  0  0  0  0  0  0  0  0  0  0
  -15.3845   14.7542  -23.4815 O   0  0  0  0  0  0  0  0  0  0  0  0
  -16.4371   14.7719  -25.5694 N   0  0  0  0  0  0  0  0  0  0  0  0
  -18.2146   13.9491  -22.6047 C   0  0  0  0  0  0  0  0  0  0  0  0
  -17.7296   14.9145  -23.3839 C   0  0  0  0  0  0  0  0  0  0  0  0
  -12.4706   17.0205  -28.0686 N   0  0  0  0  0  0  0  0  0  0  0  0
  -13.0832   17.5015  -26.8063 C   0  0  0  0  0  0  0  0  0  0  0  0
  -13.9625   18.7711  -27.0046 C   0  0  0  0  0  0  0  0  0  0  0  0
  -13.8814   19.7453  -25.8186 C   0  0  0  0  0  0  0  0  0  0  0  0
  -13.9221   18.9910  -24.4846 C   0  0  0  0  0  0  0  0  0  0  0  0
  -12.7503   17.9968  -24.3261 C   0  0  0  0  0  0  0  0  0  0  0  0
  -12.0578   17.6349  -25.6534 C   0  0  0  0  0  0  0  0  0  0  0  0
 14 15  2  0
 15 11  1  0
 11 12  2  0
 11 13  1  0
 13  1  1  0
  1  2  2  0
  2  3  1  0
  3  4  2  0
  4  5  1  0
  5  6  2  0
  6  7  1  0
  7  8  2  0
  8 16  1  0
 16 17  1  0
 17 18  1  0
 18 19  1  0
 19 20  1  0
 20 21  1  0
 21 22  1  0
  8  9  1  0
  9 10  2  0
 10  1  1  0
  9  4  1  0
 22 17  1  0
M  CHG  1  16   1
M  END
>  <minimizedAffinity>  (2) 
-7.70562

>  <CNNscore>  (2) 
0.5617006421

>  <CNNaffinity>  (2) 
6.4385709763

>  <CNN_VS>  (2) 
3.6165494919

$$$$
CHEMBL3133894_gnina_3
     RDKit          3D

 22 24  0  0  0  0  0  0  0  0999 V2000
  -12.6948   15.0434  -27.9383 C   0  0  0  0  0  0  0  0  0  0  0  0
  -13.5602   13.9517  -28.1235 C   0  0  0  0  0  0  0  0  0  0  0  0
  -14.5232   13.6418  -27.1621 C   0  0  0  0  0  0  0  0  0  0  0  0
  -14.6309   14.4102  -25.9997 C   0  0  0  0  0  0  0  0  0  0  0  0
  -15.5621   14.0889  -25.0666 N   0  0  0  0  0  0  0  0  0  0  0  0
  -15.6790   14.8059  -23.9231 C   0  0  0  0  0  0  0  0  0  0  0  0
  -14.8635   15.8655  -23.6981 N   0  0  0  0  0  0  0  0  0  0  0  0
  -13.9147   16.2568  -24.5953 C   0  0  0  0  0  0  0  0  0  0  0  0
  -13.7651   15.5073  -25.7888 C   0  0  0  0  0  0  0  0  0  0  0  0
  -12.7896   15.8044  -26.7623 C   0  0  0  0  0  0  0  0  0  0  0  0
  -10.7132   14.4077  -29.3874 C   0  0  0  0  0  0  0  0  0  0  0  0
  -10.9554   13.1733  -29.3098 O   0  0  0  0  0  0  0  0  0  0  0  0
  -11.6762   15.3603  -28.9036 N   0  0  0  0  0  0  0  0  0  0  0  0
   -9.4107   15.7542  -30.9990 C   0  0  0  0  0  0  0  0  0  0  0  0
   -9.4585   14.8378  -30.0333 C   0  0  0  0  0  0  0  0  0  0  0  0
  -13.0475   17.3905  -24.3174 N   0  0  0  0  0  0  0  0  0  0  0  0
  -13.6750   18.7342  -24.2882 C   0  0  0  0  0  0  0  0  0  0  0  0
  -14.6595   18.9691  -25.4715 C   0  0  0  0  0  0  0  0  0  0  0  0
  -14.6379   20.4164  -25.9883 C   0  0  0  0  0  0  0  0  0  0  0  0
  -14.5925   21.4142  -24.8254 C   0  0  0  0  0  0  0  0  0  0  0  0
  -13.3400   21.2387  -23.9381 C   0  0  0  0  0  0  0  0  0  0  0  0
  -12.6438   19.8753  -24.1075 C   0  0  0  0  0  0  0  0  0  0  0  0
 14 15  2  0
 15 11  1  0
 11 12  2  0
 11 13  1  0
 13  1  1  0
  1  2  2  0
  2  3  1  0
  3  4  2  0
  4  5  1  0
  5  6  2  0
  6  7  1  0
  7  8  2  0
  8 16  1  0
 16 17  1  0
 17 18  1  0
 18 19  1  0
 19 20  1  0
 20 21  1  0
 21 22  1  0
  8  9  1  0
  9 10  2  0
 10  1  1  0
  9  4  1  0
 22 17  1  0
M  CHG  1  16   1
M  END
>  <minimizedAffinity>  (3) 
-7.42654

>  <CNNscore>  (3) 
0.4474957883

>  <CNNaffinity>  (3) 
6.3738269806

>  <CNN_VS>  (3) 
2.8522608280

$$$$
CHEMBL460721_gnina_1
     RDKit          3D

 34 36  0  0  0  0  0  0  0  0999 V2000
  -18.1480   13.2283  -24.2379 C   0  0  0  0  0  0  0  0  0  0  0  0
  -18.7109   12.0008  -24.4043 N   0  0  0  0  0  0  0  0  0  0  0  0
  -18.2009   11.0867  -25.2692 C   0  0  0  0  0  0  0  0  0  0  0  0
  -17.0750   11.3988  -26.0343 C   0  0  0  0  0  0  0  0  0  0  0  0
  -16.5720   10.4873  -26.9045 N   0  0  0  0  0  0  0  0  0  0  0  0
  -15.4880   10.7749  -27.6649 C   0  0  0  0  0  0  0  0  0  0  0  0
  -14.8916   11.9895  -27.5695 N   0  0  0  0  0  0  0  0  0  0  0  0
  -15.3427   12.9496  -26.7147 C   0  0  0  0  0  0  0  0  0  0  0  0
  -16.4709   12.6680  -25.9039 C   0  0  0  0  0  0  0  0  0  0  0  0
  -17.0173   13.5854  -24.9879 C   0  0  0  0  0  0  0  0  0  0  0  0
  -14.6789   14.2325  -26.7040 N   0  0  0  0  0  0  0  0  0  0  0  0
  -13.5148   14.2121  -27.5596 C   0  0  0  0  0  0  0  0  0  0  0  0
  -13.0181   12.9956  -28.0667 C   0  0  0  0  0  0  0  0  0  0  0  0
  -11.8978   12.9823  -28.9026 C   0  0  0  0  0  0  0  0  0  0  0  0
  -11.2742   14.1798  -29.2606 C   0  0  0  0  0  0  0  0  0  0  0  0
  -11.7725   15.3968  -28.7867 C   0  0  0  0  0  0  0  0  0  0  0  0
  -10.9264   17.0344  -29.2853 Br  0  0  0  0  0  0  0  0  0  0  0  0
  -12.8896   15.4152  -27.9437 C   0  0  0  0  0  0  0  0  0  0  0  0
  -18.7822   14.2080  -23.2909 C   0  0  0  0  0  0  0  0  0  0  0  0
  -17.9113   15.4278  -23.1114 C   0  0  0  0  0  0  0  0  0  0  0  0
  -18.3759   16.4269  -22.4981 O   0  0  0  0  0  0  0  0  0  0  0  0
  -15.7992   16.6395  -23.6169 C   0  0  0  0  0  0  0  0  0  0  0  0
  -16.5347   15.5201  -23.6450 C   0  0  0  0  0  0  0  0  0  0  0  0
  -14.4381   16.6978  -24.1970 C   0  0  0  0  0  0  0  0  0  0  0  0
  -13.7147   15.6659  -24.2158 O   0  0  0  0  0  0  0  0  0  0  0  0
  -13.9149   17.9077  -24.7572 N   0  0  0  0  0  0  0  0  0  0  0  0
  -14.3247   18.4783  -26.0355 C   0  0  0  0  0  0  0  0  0  0  0  0
  -13.9666   19.9670  -26.0993 C   0  0  0  0  0  0  0  0  0  0  0  0
  -14.8997   20.8515  -25.2527 C   0  0  0  0  0  0  0  0  0  0  0  0
  -14.2920   21.2326  -23.9578 N   0  0  0  0  0  0  0  0  0  0  0  0
  -15.0186   20.7713  -22.7495 C   0  0  0  0  0  0  0  0  0  0  0  0
  -14.1947   19.8720  -21.8124 C   0  0  0  0  0  0  0  0  0  0  0  0
  -13.7594   22.6151  -23.8759 C   0  0  0  0  0  0  0  0  0  0  0  0
  -12.4493   22.8342  -24.6368 C   0  0  0  0  0  0  0  0  0  0  0  0
 22 24  1  0
 24 25  2  0
 24 26  1  0
 26 27  1  0
 27 28  1  0
 28 29  1  0
 29 30  1  0
 30 31  1  0
 31 32  1  0
 30 33  1  0
 33 34  1  0
 22 23  2  0
 23 20  1  0
 20 21  2  0
 20 19  1  0
 19  1  1  0
  1  2  2  0
  2  3  1  0
  3  4  2  0
  4  5  1  0
  5  6  2  0
  6  7  1  0
  7  8  2  0
  8 11  1  0
 11 12  1  0
 12 13  2  0
 13 14  1  0
 14 15  2  0
 15 16  1  0
 16 17  1  0
 16 18  2  0
  8  9  1  0
  9 10  2  0
 10  1  1  0
  9  4  1  0
 18 12  1  0
M  CHG  2  11   1  26  -1
M  END
>  <minimizedAffinity>  (4) 
-7.26036

>  <CNNscore>  (4) 
0.6111899614

>  <CNNaffinity>  (4) 
7.6406574249

>  <CNN_VS>  (4) 
4.6698932648

$$$$
CHEMBL460721_gnina_2
     RDKit          3D

 34 36  0  0  0  0  0  0  0  0999 V2000
  -16.4673    9.7578  -27.9899 C   0  0  0  0  0  0  0  0  0  0  0  0
  -17.5008    9.9971  -27.1378 N   0  0  0  0  0  0  0  0  0  0  0  0
  -17.5311   11.0900  -26.3326 C   0  0  0  0  0  0  0  0  0  0  0  0
  -16.4735   12.0019  -26.3497 C   0  0  0  0  0  0  0  0  0  0  0  0
  -16.5014   13.0888  -25.5380 N   0  0  0  0  0  0  0  0  0  0  0  0
  -15.4797   13.9787  -25.5304 C   0  0  0  0  0  0  0  0  0  0  0  0
  -14.4049   13.7889  -26.3358 N   0  0  0  0  0  0  0  0  0  0  0  0
  -14.3133   12.7213  -27.1771 C   0  0  0  0  0  0  0  0  0  0  0  0
  -15.3740   11.7814  -27.2072 C   0  0  0  0  0  0  0  0  0  0  0  0
  -15.3823   10.6462  -28.0381 C   0  0  0  0  0  0  0  0  0  0  0  0
  -13.1161   12.5676  -27.9708 N   0  0  0  0  0  0  0  0  0  0  0  0
  -12.5584   13.8570  -28.3083 C   0  0  0  0  0  0  0  0  0  0  0  0
  -13.1409   15.0416  -27.8173 C   0  0  0  0  0  0  0  0  0  0  0  0
  -12.5911   16.2861  -28.1383 C   0  0  0  0  0  0  0  0  0  0  0  0
  -11.4443   16.3640  -28.9318 C   0  0  0  0  0  0  0  0  0  0  0  0
  -10.8397   15.1953  -29.4037 C   0  0  0  0  0  0  0  0  0  0  0  0
   -9.2654   15.3016  -30.4791 Br  0  0  0  0  0  0  0  0  0  0  0  0
  -11.3901   13.9470  -29.0912 C   0  0  0  0  0  0  0  0  0  0  0  0
  -16.4768    8.5108  -28.8287 C   0  0  0  0  0  0  0  0  0  0  0  0
  -17.6741    7.6505  -28.5049 C   0  0  0  0  0  0  0  0  0  0  0  0
  -18.6907    7.7112  -29.2484 O   0  0  0  0  0  0  0  0  0  0  0  0
  -18.7719    6.6656  -26.5026 C   0  0  0  0  0  0  0  0  0  0  0  0
  -17.7244    6.7483  -27.3335 C   0  0  0  0  0  0  0  0  0  0  0  0
  -18.7651    5.7757  -25.3191 C   0  0  0  0  0  0  0  0  0  0  0  0
  -19.3031    4.6376  -25.3814 O   0  0  0  0  0  0  0  0  0  0  0  0
  -18.1453    6.1707  -24.0897 N   0  0  0  0  0  0  0  0  0  0  0  0
  -18.5349    7.3312  -23.2965 C   0  0  0  0  0  0  0  0  0  0  0  0
  -17.2966    8.1075  -22.8356 C   0  0  0  0  0  0  0  0  0  0  0  0
  -17.3642    8.5341  -21.3579 C   0  0  0  0  0  0  0  0  0  0  0  0
  -18.0532    9.8319  -21.1779 N   0  0  0  0  0  0  0  0  0  0  0  0
  -18.1449   10.6812  -22.3908 C   0  0  0  0  0  0  0  0  0  0  0  0
  -17.0185   11.7192  -22.5313 C   0  0  0  0  0  0  0  0  0  0  0  0
  -17.7368   10.5634  -19.9264 C   0  0  0  0  0  0  0  0  0  0  0  0
  -16.3066   10.3605  -19.4196 C   0  0  0  0  0  0  0  0  0  0  0  0
 22 24  1  0
 24 25  2  0
 24 26  1  0
 26 27  1  0
 27 28  1  0
 28 29  1  0
 29 30  1  0
 30 31  1  0
 31 32  1  0
 30 33  1  0
 33 34  1  0
 22 23  2  0
 23 20  1  0
 20 21  2  0
 20 19  1  0
 19  1  1  0
  1  2  2  0
  2  3  1  0
  3  4  2  0
  4  5  1  0
  5  6  2  0
  6  7  1  0
  7  8  2  0
  8 11  1  0
 11 12  1  0
 12 13  2  0
 13 14  1  0
 14 15  2  0
 15 16  1  0
 16 17  1  0
 16 18  2  0
  8  9  1  0
  9 10  2  0
 10  1  1  0
  9  4  1  0
 18 12  1  0
M  CHG  2  11   1  26  -1
M  END
>  <minimizedAffinity>  (5) 
-6.97756

>  <CNNscore>  (5) 
0.5748391151

>  <CNNaffinity>  (5) 
7.2436151505

>  <CNN_VS>  (5) 
4.1639132500

$$$$
CHEMBL460721_gnina_3
     RDKit          3D

 34 36  0  0  0  0  0  0  0  0999 V2000
  -13.8927   16.4756  -24.4210 C   0  0  0  0  0  0  0  0  0  0  0  0
  -15.2271   16.4903  -24.1553 N   0  0  0  0  0  0  0  0  0  0  0  0
  -16.0661   15.5354  -24.6325 C   0  0  0  0  0  0  0  0  0  0  0  0
  -15.5709   14.5062  -25.4361 C   0  0  0  0  0  0  0  0  0  0  0  0
  -16.4124   13.5578  -25.9193 N   0  0  0  0  0  0  0  0  0  0  0  0
  -15.9540   12.5580  -26.7108 C   0  0  0  0  0  0  0  0  0  0  0  0
  -14.6390   12.4963  -27.0377 N   0  0  0  0  0  0  0  0  0  0  0  0
  -13.7392   13.4137  -26.5850 C   0  0  0  0  0  0  0  0  0  0  0  0
  -14.1951   14.4641  -25.7494 C   0  0  0  0  0  0  0  0  0  0  0  0
  -13.3523   15.4617  -25.2263 C   0  0  0  0  0  0  0  0  0  0  0  0
  -12.3643   13.3030  -27.0140 N   0  0  0  0  0  0  0  0  0  0  0  0
  -12.0006   14.4196  -27.8557 C   0  0  0  0  0  0  0  0  0  0  0  0
  -12.6489   15.6625  -27.7189 C   0  0  0  0  0  0  0  0  0  0  0  0
  -12.2861   16.7427  -28.5285 C   0  0  0  0  0  0  0  0  0  0  0  0
  -11.2603   16.6043  -29.4663 C   0  0  0  0  0  0  0  0  0  0  0  0
  -10.5897   15.3845  -29.5944 C   0  0  0  0  0  0  0  0  0  0  0  0
   -9.1798   15.1990  -30.8688 Br  0  0  0  0  0  0  0  0  0  0  0  0
  -10.9538   14.2977  -28.7912 C   0  0  0  0  0  0  0  0  0  0  0  0
  -13.0235   17.5820  -23.8926 C   0  0  0  0  0  0  0  0  0  0  0  0
  -13.1715   18.8313  -24.7269 C   0  0  0  0  0  0  0  0  0  0  0  0
  -13.5265   18.7242  -25.9321 O   0  0  0  0  0  0  0  0  0  0  0  0
  -13.2860   21.3140  -24.8125 C   0  0  0  0  0  0  0  0  0  0  0  0
  -12.8950   20.1869  -24.2031 C   0  0  0  0  0  0  0  0  0  0  0  0
  -12.9548   22.6525  -24.2724 C   0  0  0  0  0  0  0  0  0  0  0  0
  -11.8520   23.1927  -24.5559 O   0  0  0  0  0  0  0  0  0  0  0  0
  -13.8694   23.3681  -23.4341 N   0  0  0  0  0  0  0  0  0  0  0  0
  -15.0989   22.8128  -22.8794 C   0  0  0  0  0  0  0  0  0  0  0  0
  -14.9131   22.4695  -21.3974 C   0  0  0  0  0  0  0  0  0  0  0  0
  -14.8980   20.9547  -21.1237 C   0  0  0  0  0  0  0  0  0  0  0  0
  -16.0613   20.5166  -20.3198 N   0  0  0  0  0  0  0  0  0  0  0  0
  -15.8408   19.3157  -19.4771 C   0  0  0  0  0  0  0  0  0  0  0  0
  -16.5053   19.3765  -18.0912 C   0  0  0  0  0  0  0  0  0  0  0  0
  -17.3760   20.5645  -21.0060 C   0  0  0  0  0  0  0  0  0  0  0  0
  -17.9586   19.1922  -21.3532 C   0  0  0  0  0  0  0  0  0  0  0  0
 22 24  1  0
 24 25  2  0
 24 26  1  0
 26 27  1  0
 27 28  1  0
 28 29  1  0
 29 30  1  0
 30 31  1  0
 31 32  1  0
 30 33  1  0
 33 34  1  0
 22 23  2  0
 23 20  1  0
 20 21  2  0
 20 19  1  0
 19  1  1  0
  1  2  2  0
  2  3  1  0
  3  4  2  0
  4  5  1  0
  5  6  2  0
  6  7  1  0
  7  8  2  0
  8 11  1  0
 11 12  1  0
 12 13  2  0
 13 14  1  0
 14 15  2  0
 15 16  1  0
 16 17  1  0
 16 18  2  0
  8  9  1  0
  9 10  2  0
 10  1  1  0
  9  4  1  0
 18 12  1  0
M  CHG  2  11   1  26  -1
M  END
>  <minimizedAffinity>  (6) 
-6.50324

>  <CNNscore>  (6) 
0.4867840111

>  <CNNaffinity>  (6) 
7.4709968567

>  <CNN_VS>  (6) 
3.6367619038

$$$$
CHEMBL4858409_gnina_1
     RDKit          3D

 35 38  0  0  0  0  0  0  0  0999 V2000
  -13.5330   17.6144  -25.5551 C   0  0  0  0  0  0  0  0  0  0  0  0
  -12.9210   18.3245  -24.5662 N   0  0  0  0  0  0  0  0  0  0  0  0
  -13.1731   19.6456  -24.3751 C   0  0  0  0  0  0  0  0  0  0  0  0
  -14.0631   20.2848  -25.1822 N   0  0  0  0  0  0  0  0  0  0  0  0
  -14.7094   19.6229  -26.1765 C   0  0  0  0  0  0  0  0  0  0  0  0
  -14.4670   18.2641  -26.3882 C   0  0  0  0  0  0  0  0  0  0  0  0
  -15.3451   17.4374  -27.6746 Cl  0  0  0  0  0  0  0  0  0  0  0  0
  -13.2039   16.2172  -25.7157 N   0  0  0  0  0  0  0  0  0  0  0  0
  -12.8086   14.8308  -27.7770 C   0  0  0  0  0  0  0  0  0  0  0  0
  -12.1254   14.6647  -28.9932 C   0  0  0  0  0  0  0  0  0  0  0  0
  -11.2510   15.6582  -29.4642 C   0  0  0  0  0  0  0  0  0  0  0  0
  -11.0592   16.8219  -28.7305 C   0  0  0  0  0  0  0  0  0  0  0  0
  -11.7209   16.9879  -27.5100 C   0  0  0  0  0  0  0  0  0  0  0  0
  -12.5865   16.0054  -27.0065 C   0  0  0  0  0  0  0  0  0  0  0  0
  -14.8138   14.1016  -26.7531 O   0  0  0  0  0  0  0  0  0  0  0  0
  -13.7785   13.7905  -27.3873 C   0  0  0  0  0  0  0  0  0  0  0  0
  -13.5573   12.4225  -27.7365 N   0  0  0  0  0  0  0  0  0  0  0  0
  -14.5188   11.4896  -27.5364 O   0  0  0  0  0  0  0  0  0  0  0  0
  -12.5284   20.3517  -23.3029 N   0  0  0  0  0  0  0  0  0  0  0  0
  -13.4336   20.4755  -22.1872 C   0  0  0  0  0  0  0  0  0  0  0  0
  -13.9406   19.3335  -21.5490 C   0  0  0  0  0  0  0  0  0  0  0  0
  -14.8595   19.4521  -20.5018 C   0  0  0  0  0  0  0  0  0  0  0  0
  -15.2892   20.7189  -20.0776 C   0  0  0  0  0  0  0  0  0  0  0  0
  -14.7813   21.8567  -20.7123 C   0  0  0  0  0  0  0  0  0  0  0  0
  -13.8634   21.7385  -21.7590 C   0  0  0  0  0  0  0  0  0  0  0  0
  -16.2089   20.8952  -19.0313 O   0  0  0  0  0  0  0  0  0  0  0  0
  -17.5746   20.4845  -19.0539 C   0  0  0  0  0  0  0  0  0  0  0  0
  -17.8187   19.3764  -18.0794 C   0  0  0  0  0  0  0  0  0  0  0  0
  -16.8490   18.8563  -17.4735 O   0  0  0  0  0  0  0  0  0  0  0  0
  -19.1476   18.9121  -17.8210 N   0  0  0  0  0  0  0  0  0  0  0  0
  -19.6172   18.7604  -16.4435 C   0  0  0  0  0  0  0  0  0  0  0  0
  -19.9739   17.2860  -16.2030 C   0  0  0  0  0  0  0  0  0  0  0  0
  -20.8705   16.8054  -17.1977 O   0  0  0  0  0  0  0  0  0  0  0  0
  -20.2597   16.8447  -18.4753 C   0  0  0  0  0  0  0  0  0  0  0  0
  -19.9519   18.2880  -18.8862 C   0  0  0  0  0  0  0  0  0  0  0  0
 15 16  2  0
 16 17  1  0
 17 18  1  0
 16  9  1  0
  9 10  2  0
 10 11  1  0
 11 12  2  0
 12 13  1  0
 13 14  2  0
 14  8  1  0
  8  1  1  0
  1  2  2  0
  2  3  1  0
  3 19  1  0
 19 20  1  0
 20 21  2  0
 21 22  1  0
 22 23  2  0
 23 26  1  0
 26 27  1  0
 27 28  1  0
 28 29  2  0
 28 30  1  0
 30 31  1  0
 31 32  1  0
 32 33  1  0
 33 34  1  0
 34 35  1  0
 23 24  1  0
 24 25  2  0
  3  4  2  0
  4  5  1  0
  5  6  2  0
  6  7  1  0
 14  9  1  0
  6  1  1  0
 25 20  1  0
 35 30  1  0
M  CHG  2   8   1  19   1
M  END
>  <minimizedAffinity>  (7) 
-8.55142

>  <CNNscore>  (7) 
0.4466792941

>  <CNNaffinity>  (7) 
6.4258489609

>  <CNN_VS>  (7) 
2.8702936172

$$$$
CHEMBL4858409_gnina_2
     RDKit          3D

 35 38  0  0  0  0  0  0  0  0999 V2000
  -13.4283   17.6636  -25.5378 C   0  0  0  0  0  0  0  0  0  0  0  0
  -12.7432   18.3784  -24.6017 N   0  0  0  0  0  0  0  0  0  0  0  0
  -12.9340   19.7139  -24.4426 C   0  0  0  0  0  0  0  0  0  0  0  0
  -13.8352   20.3636  -25.2287 N   0  0  0  0  0  0  0  0  0  0  0  0
  -14.5528   19.6981  -26.1703 C   0  0  0  0  0  0  0  0  0  0  0  0
  -14.3741   18.3247  -26.3483 C   0  0  0  0  0  0  0  0  0  0  0  0
  -15.3433   17.4951  -27.5655 Cl  0  0  0  0  0  0  0  0  0  0  0  0
  -13.1621   16.2498  -25.6675 N   0  0  0  0  0  0  0  0  0  0  0  0
  -12.9271   14.7851  -27.6988 C   0  0  0  0  0  0  0  0  0  0  0  0
  -12.3132   14.5530  -28.9409 C   0  0  0  0  0  0  0  0  0  0  0  0
  -11.4244   15.4941  -29.4868 C   0  0  0  0  0  0  0  0  0  0  0  0
  -11.1493   16.6709  -28.8021 C   0  0  0  0  0  0  0  0  0  0  0  0
  -11.7415   16.9021  -27.5567 C   0  0  0  0  0  0  0  0  0  0  0  0
  -12.6195   15.9726  -26.9793 C   0  0  0  0  0  0  0  0  0  0  0  0
  -14.9523   14.1810  -26.6337 O   0  0  0  0  0  0  0  0  0  0  0  0
  -13.9172   13.7988  -27.2280 C   0  0  0  0  0  0  0  0  0  0  0  0
  -13.7158   12.4019  -27.4527 N   0  0  0  0  0  0  0  0  0  0  0  0
  -14.6941   11.5056  -27.1801 O   0  0  0  0  0  0  0  0  0  0  0  0
  -12.2125   20.4259  -23.4246 N   0  0  0  0  0  0  0  0  0  0  0  0
  -13.1345   20.9347  -22.4393 C   0  0  0  0  0  0  0  0  0  0  0  0
  -13.8856   20.0564  -21.6437 C   0  0  0  0  0  0  0  0  0  0  0  0
  -14.8182   20.5484  -20.7256 C   0  0  0  0  0  0  0  0  0  0  0  0
  -15.0169   21.9311  -20.5910 C   0  0  0  0  0  0  0  0  0  0  0  0
  -14.2659   22.8060  -21.3823 C   0  0  0  0  0  0  0  0  0  0  0  0
  -13.3341   22.3145  -22.3000 C   0  0  0  0  0  0  0  0  0  0  0  0
  -15.9392   22.4788  -19.6848 O   0  0  0  0  0  0  0  0  0  0  0  0
  -17.2320   22.9780  -20.0222 C   0  0  0  0  0  0  0  0  0  0  0  0
  -18.0634   21.9192  -20.6743 C   0  0  0  0  0  0  0  0  0  0  0  0
  -18.4641   20.9392  -19.9983 O   0  0  0  0  0  0  0  0  0  0  0  0
  -18.4175   22.0189  -22.0573 N   0  0  0  0  0  0  0  0  0  0  0  0
  -19.8075   21.8322  -22.4744 C   0  0  0  0  0  0  0  0  0  0  0  0
  -19.8805   20.6282  -23.4250 C   0  0  0  0  0  0  0  0  0  0  0  0
  -18.9476   20.7583  -24.4915 O   0  0  0  0  0  0  0  0  0  0  0  0
  -17.6222   20.7675  -23.9914 C   0  0  0  0  0  0  0  0  0  0  0  0
  -17.3837   21.9953  -23.1070 C   0  0  0  0  0  0  0  0  0  0  0  0
 15 16  2  0
 16 17  1  0
 17 18  1  0
 16  9  1  0
  9 10  2  0
 10 11  1  0
 11 12  2  0
 12 13  1  0
 13 14  2  0
 14  8  1  0
  8  1  1  0
  1  2  2  0
  2  3  1  0
  3 19  1  0
 19 20  1  0
 20 21  2  0
 21 22  1  0
 22 23  2  0
 23 26  1  0
 26 27  1  0
 27 28  1  0
 28 29  2  0
 28 30  1  0
 30 31  1  0
 31 32  1  0
 32 33  1  0
 33 34  1  0
 34 35  1  0
 23 24  1  0
 24 25  2  0
  3  4  2  0
  4  5  1  0
  5  6  2  0
  6  7  1  0
 14  9  1  0
  6  1  1  0
 25 20  1  0
 35 30  1  0
M  CHG  2   8   1  19   1
M  END
>  <minimizedAffinity>  (8) 
-8.37312

>  <CNNscore>  (8) 
0.3868306875

>  <CNNaffinity>  (8) 
6.7827377319

>  <CNN_VS>  (8) 
2.6237711906

$$$$
CHEMBL4858409_gnina_3
     RDKit          3D

 35 38  0  0  0  0  0  0  0  0999 V2000
  -17.3616   11.3487  -26.1151 C   0  0  0  0  0  0  0  0  0  0  0  0
  -16.1671   11.9935  -26.2332 N   0  0  0  0  0  0  0  0  0  0  0  0
  -15.2168   11.5808  -27.1119 C   0  0  0  0  0  0  0  0  0  0  0  0
  -15.4562   10.5006  -27.9043 N   0  0  0  0  0  0  0  0  0  0  0  0
  -16.6336    9.8273  -27.8353 C   0  0  0  0  0  0  0  0  0  0  0  0
  -17.6249   10.2365  -26.9411 C   0  0  0  0  0  0  0  0  0  0  0  0
  -19.1480    9.3489  -26.9006 Cl  0  0  0  0  0  0  0  0  0  0  0  0
  -18.3196   11.8282  -25.1462 N   0  0  0  0  0  0  0  0  0  0  0  0
  -17.5496   10.8859  -22.9448 C   0  0  0  0  0  0  0  0  0  0  0  0
  -16.9750   11.1120  -21.6830 C   0  0  0  0  0  0  0  0  0  0  0  0
  -16.5065   12.3880  -21.3282 C   0  0  0  0  0  0  0  0  0  0  0  0
  -16.6022   13.4403  -22.2297 C   0  0  0  0  0  0  0  0  0  0  0  0
  -17.1893   13.2290  -23.4810 C   0  0  0  0  0  0  0  0  0  0  0  0
  -17.6813   11.9699  -23.8560 C   0  0  0  0  0  0  0  0  0  0  0  0
  -17.0571    8.6312  -23.4687 O   0  0  0  0  0  0  0  0  0  0  0  0
  -17.9373    9.5043  -23.2845 C   0  0  0  0  0  0  0  0  0  0  0  0
  -19.3152    9.1420  -23.3960 N   0  0  0  0  0  0  0  0  0  0  0  0
  -19.6844    7.8463  -23.5362 O   0  0  0  0  0  0  0  0  0  0  0  0
  -13.9816   12.3054  -27.2261 N   0  0  0  0  0  0  0  0  0  0  0  0
  -14.2198   13.7115  -27.0119 C   0  0  0  0  0  0  0  0  0  0  0  0
  -15.0367   14.1445  -25.9566 C   0  0  0  0  0  0  0  0  0  0  0  0
  -15.3110   15.5042  -25.7804 C   0  0  0  0  0  0  0  0  0  0  0  0
  -14.7732   16.4544  -26.6620 C   0  0  0  0  0  0  0  0  0  0  0  0
  -13.9569   16.0223  -27.7119 C   0  0  0  0  0  0  0  0  0  0  0  0
  -13.6829   14.6637  -27.8884 C   0  0  0  0  0  0  0  0  0  0  0  0
  -15.0157   17.8314  -26.5309 O   0  0  0  0  0  0  0  0  0  0  0  0
  -14.0543   18.8047  -26.1279 C   0  0  0  0  0  0  0  0  0  0  0  0
  -14.7221   20.0654  -25.6781 C   0  0  0  0  0  0  0  0  0  0  0  0
  -15.6888   20.5254  -26.3352 O   0  0  0  0  0  0  0  0  0  0  0  0
  -14.2785   20.7450  -24.4993 N   0  0  0  0  0  0  0  0  0  0  0  0
  -15.2461   21.1591  -23.4829 C   0  0  0  0  0  0  0  0  0  0  0  0
  -15.1965   22.6881  -23.3476 C   0  0  0  0  0  0  0  0  0  0  0  0
  -13.8659   23.1416  -23.1277 O   0  0  0  0  0  0  0  0  0  0  0  0
  -13.0470   22.8322  -24.2415 C   0  0  0  0  0  0  0  0  0  0  0  0
  -12.9224   21.3158  -24.4197 C   0  0  0  0  0  0  0  0  0  0  0  0
 15 16  2  0
 16 17  1  0
 17 18  1  0
 16  9  1  0
  9 10  2  0
 10 11  1  0
 11 12  2  0
 12 13  1  0
 13 14  2  0
 14  8  1  0
  8  1  1  0
  1  2  2  0
  2  3  1  0
  3 19  1  0
 19 20  1  0
 20 21  2  0
 21 22  1  0
 22 23  2  0
 23 26  1  0
 26 27  1  0
 27 28  1  0
 28 29  2  0
 28 30  1  0
 30 31  1  0
 31 32  1  0
 32 33  1  0
 33 34  1  0
 34 35  1  0
 23 24  1  0
 24 25  2  0
  3  4  2  0
  4  5  1  0
  5  6  2  0
  6  7  1  0
 14  9  1  0
  6  1  1  0
 25 20  1  0
 35 30  1  0
M  CHG  2   8   1  19   1
M  END
>  <minimizedAffinity>  (9) 
-7.43901

>  <CNNscore>  (9) 
0.3817628324

>  <CNNaffinity>  (9) 
6.6137542725

>  <CNN_VS>  (9) 
2.5248856544

$$$$
